LTspice 24.0.12 for Windows
Circuit: * D:\PythonProjects\emc_test_automation_dashboard\emc_test_automation_api\data\Schematics\testx\iso_7637-2_pulse_1.asc
Start Time: Mon Nov 25 10:33:19 2024
solver = Alternate
Maximum thread count: 12
tnom = 27
temp = 27
method = modified trap
Direct Newton iteration for .op point succeeded.
Total elapsed time: 25.334 seconds.

